[General]
network=simpleEmitter
warmup-period = 3s
num-rngs = 3
*.emitter.rng-0 = 0
*.emitter.rng-1 = 1
*.server.rng-0 = 2

repeat = 5
seed-set = ${repetition}

sim-time-limit = 1000s
**.emitter.interarrival_time = ${16ms, 20ms}
**.emitter.requested_service_time = ${3ms, 7ms}
**.server.vacation_time = ${1ms, 5ms}


[Config fact_Q1]
sim-time-limit = 1000s
**.emitter.interarrival_time = ${16ms, 20ms}
**.emitter.requested_service_time = ${3ms, 7ms}
**.server.vacation_time = ${1ms, 5ms}

[Config fact_Q10]
sim-time-limit = 1000s
**.emitter.interarrival_time = ${9ms, 13ms}
**.emitter.requested_service_time = ${3ms, 7ms}
**.server.vacation_time = ${1ms, 5ms}

[Config fact_Q01]
sim-time-limit = 1000s
**.emitter.interarrival_time = ${77ms, 81ms}
**.emitter.requested_service_time = ${3ms, 7ms}
**.server.vacation_time = ${1ms, 5ms}

[Config fact_Q5]
sim-time-limit = 1000s
**.emitter.interarrival_time = ${10ms, 14ms}
**.emitter.requested_service_time = ${3ms, 7ms}
**.server.vacation_time = ${1ms, 5ms}

[Config fact_Q05]
sim-time-limit = 1000s
**.emitter.interarrival_time = ${22ms, 26ms}
**.emitter.requested_service_time = ${3ms, 7ms}
**.server.vacation_time = ${1ms, 5ms}

