warmup-period = 3s
repeat = 15
seed-set = ${repetition}
sim-time-limit = 1000s
**.emitter.interarrival_time = ${9ms, 10ms, 12ms, 13ms}
**.emitter.requested_service_time = ${3ms, 4ms, 6ms, 7ms}
**.server.vacation_time = ${5ms}