warmup-period = 3s
repeat = 15
seed-set = ${repetition}
sim-time-limit = 1000s
**.emitter.interarrival_time = ${16ms}
**.emitter.requested_service_time = ${3ms, 4ms, 6ms, 7ms}
**.server.vacation_time = ${1ms, 2ms, 4ms, 5ms}